version 2
run General-0-20210122-02:44:36-14057
attr configname General
attr datetime 20210122-02:44:36
attr experiment General
attr inifile omnetpp.ini
attr iterationvars ""
attr iterationvars2 $repetition=0
attr measurement ""
attr network s_2serv_4cores
attr processid 14057
attr repetition 0
attr replication #0
attr resultdir results
attr runnumber 0
attr seedset 0

