version 2
run General-0-20210121-21:38:10-7982
attr configname General
attr datetime 20210121-21:38:10
attr experiment General
attr inifile omnetpp.ini
attr iterationvars ""
attr iterationvars2 $repetition=0
attr measurement ""
attr network s_8serv_8cores
attr processid 7982
attr repetition 0
attr replication #0
attr resultdir results
attr runnumber 0
attr seedset 0

