version 2
run General-0-20210122-01:58:07-13106
attr configname General
attr datetime 20210122-01:58:07
attr experiment General
attr inifile omnetpp.ini
attr iterationvars ""
attr iterationvars2 $repetition=0
attr measurement ""
attr network s_4serv_2cores
attr processid 13106
attr repetition 0
attr replication #0
attr resultdir results
attr runnumber 0
attr seedset 0

