version 2
run General-0-20210121-21:13:23-7371
attr configname General
attr datetime 20210121-21:13:23
attr experiment General
attr inifile omnetpp.ini
attr iterationvars ""
attr iterationvars2 $repetition=0
attr measurement ""
attr network s_16serv_2cores
attr processid 7371
attr repetition 0
attr replication #0
attr resultdir results
attr runnumber 0
attr seedset 0

