version 2
run General-0-20210122-04:16:45-15374
attr configname General
attr datetime 20210122-04:16:45
attr experiment General
attr inifile omnetpp.ini
attr iterationvars ""
attr iterationvars2 $repetition=0
attr measurement ""
attr network s_2serv_8cores
attr processid 15374
attr repetition 0
attr replication #0
attr resultdir results
attr runnumber 0
attr seedset 0

