version 2
run General-0-20210121-23:03:20-10064
attr configname General
attr datetime 20210121-23:03:20
attr experiment General
attr inifile omnetpp.ini
attr iterationvars ""
attr iterationvars2 $repetition=0
attr measurement ""
attr network s_2serv_1cores
attr processid 10064
attr repetition 0
attr replication #0
attr resultdir results
attr runnumber 0
attr seedset 0

