version 2
run General-0-20210122-02:31:36-13871
attr configname General
attr datetime 20210122-02:31:36
attr experiment General
attr inifile omnetpp.ini
attr iterationvars ""
attr iterationvars2 $repetition=0
attr measurement ""
attr network s_8serv_2cores
attr processid 13871
attr repetition 0
attr replication #0
attr resultdir results
attr runnumber 0
attr seedset 0

